ansiwrap/__init__.py,sha256=euOgz_Mr8qrmx1RK-VsKQ0wbyrlAOaToZNerlWHMH7M,44
ansiwrap/ansistate.py,sha256=PLjCu2HKWx5WqZlbpomLPUMqjJUls0T_eXAzzupztqY,3909
ansiwrap/core.py,sha256=3c343SyvfhtDgQEfxHrAb6eo-BA6r5U-Oy1EmcWL7e0,6287
ansiwrap-0.8.0.dist-info/DESCRIPTION.rst,sha256=hpZDxCacSYeQSyiMS0Wu6oge9Re-hcl2CK3MGN99BBE,1926
ansiwrap-0.8.0.dist-info/METADATA,sha256=qIXIH6J-qT1jg6idf5rg5Ew-MT3D8rEZW6M6O-7lImw,3204
ansiwrap-0.8.0.dist-info/RECORD,,
ansiwrap-0.8.0.dist-info/WHEEL,sha256=o2k-Qa-RMNIJmUdIc7KU6VWR_ErNRbWNlxDIpl7lm34,110
ansiwrap-0.8.0.dist-info/metadata.json,sha256=YLoLymcZ-MC7VQy_SD7yvFGG2xRXlrjfeb-5___HMW4,1428
ansiwrap-0.8.0.dist-info/top_level.txt,sha256=aDnsSGH_fFB0eBO31FpHhMaryXyGpIkHEieZGx_mNIA,9
